Version 4
SHEET 1 880 680
WIRE 16 96 -96 96
WIRE 112 96 16 96
WIRE 192 96 112 96
WIRE 272 96 192 96
WIRE 368 96 272 96
WIRE 464 96 368 96
WIRE -96 112 -96 96
WIRE 16 112 16 96
WIRE 112 112 112 96
WIRE 192 112 192 96
WIRE 272 112 272 96
WIRE 368 112 368 96
WIRE 464 112 464 96
WIRE 16 192 16 176
WIRE 112 192 112 176
WIRE 192 192 192 176
WIRE 272 192 272 176
WIRE 368 192 368 176
WIRE -96 208 -96 192
WIRE 464 208 464 192
WIRE 16 288 16 272
WIRE 112 288 112 272
WIRE 192 288 192 272
WIRE 272 288 272 272
WIRE 368 288 368 272
WIRE 16 384 16 368
WIRE 112 384 112 368
WIRE 192 384 192 368
WIRE 272 384 272 368
WIRE 368 384 368 368
FLAG 192 384 0
FLAG -96 208 0
FLAG 16 384 0
FLAG 112 384 0
FLAG 272 384 0
FLAG 368 384 0
FLAG 464 208 0
SYMBOL cap 96 112 R0
SYMATTR InstName C1
SYMATTR Value 22µ
SYMBOL cap 0 112 R0
SYMATTR InstName C2
SYMATTR Value 22µ
SYMBOL cap 176 112 R0
SYMATTR InstName C3
SYMATTR Value 4.7µ
SYMBOL cap 352 112 R0
SYMATTR InstName C4
SYMATTR Value 330µ
SYMBOL cap 256 112 R0
SYMATTR InstName C5
SYMATTR Value 100µ
SYMBOL res 352 176 R0
SYMATTR InstName R1
SYMATTR Value 10m
SYMBOL res 256 176 R0
SYMATTR InstName R2
SYMATTR Value 10m
SYMBOL res 176 176 R0
SYMATTR InstName R3
SYMATTR Value 1m
SYMBOL res 96 176 R0
SYMATTR InstName R4
SYMATTR Value 1m
SYMBOL res 0 176 R0
SYMATTR InstName R5
SYMATTR Value 1m
SYMBOL ind 352 272 R0
SYMATTR InstName L1
SYMATTR Value 2.5n
SYMBOL ind 256 272 R0
SYMATTR InstName L2
SYMATTR Value 2n
SYMBOL ind 176 272 R0
SYMATTR InstName L3
SYMATTR Value 1n
SYMBOL ind 96 272 R0
SYMATTR InstName L4
SYMATTR Value 1n
SYMBOL ind 0 272 R0
SYMATTR InstName L5
SYMATTR Value 1n
SYMBOL voltage -96 96 R0
WINDOW 123 24 97 Left 2
WINDOW 39 24 117 Left 2
SYMATTR Value2 AC 1
SYMATTR InstName V1
SYMATTR Value ""
SYMBOL res 448 96 R0
SYMATTR InstName R6
SYMATTR Value 10Meg
TEXT 248 432 Left 2 !.ac dec 50 100 10MEG
